simulator lang=spectre
include "g45n1svt.scs"
include "g45p1svt.scs"
