// Generated for: spectre
// Generated on: Nov  8 17:33:06 2019
// Design library name: ELEC402
// Design cell name: NAND3_TB
// Design view name: schematic
simulator lang=spectre
global 0
